%nprocshared=64
%mem=64GB
%chk=OH_AGE_TEABr_CO2_bind_opt_freq_TEA_relax_6_31Gdp_1.chk
# opt=(calcall,tight,cartesian) freq b3lyp/gen nosymm
scf=(qc,maxcycle=1024) pseudo=read

OH_AGE_TEABr_CO2_bind_opt_freq_TEA_relax_6_31Gdp_1

0 1
 Zn               0   -2.62680200   -0.13713400   -0.17597200
 O                0   -1.20230600   -1.38880800   -0.96221200
 O                0    0.79982100    0.15004800   -0.60825400
 O               -1   -1.94049300   -0.63788000    1.72455200
 O               -1   -0.37269300    1.01087500    1.91697200
 C               -1   -1.06872400    0.05736700    2.35689200
 Zn               0   -0.20528300    1.86511400   -0.06449400
 O               -1   -1.63007900    3.22080600    0.54067600
 O               -1   -3.34506400    1.72518300    0.72020200
 O               -1   -1.08555900    1.98476100   -2.06074900
 O               -1   -2.99375600    0.73732500   -2.01136600
 C               -1   -2.81578800    2.87056000    0.84075600
 C               -1   -2.15086700    1.52281200   -2.55909500
 H               -1   -0.90807900   -0.23462600    3.41990800
 H               -1   -3.46663600    3.66873000    1.26093700
 H               -1   -2.38928200    1.83635500   -3.59888800
 C               -1    2.59138700    2.85970400   -0.55113500
 C               -1    3.70861200    3.70781500   -0.53734800
 C               -1    3.56604300    5.00672600   -0.02115400
 C               -1    2.30986500    5.41502300    0.45913800
 C               -1    1.24090600    4.50819900    0.41039900
 N               -1    1.38394800    3.25577100   -0.08258400
 H               -1    4.41908800    5.69040200    0.00577000
 H               -1    2.63015800    1.83613200   -0.93463600
 H               -1    4.66543400    3.35002800   -0.92344800
 H               -1    2.15477400    6.41643100    0.86647300
 H               -1    0.23923600    4.76356800    0.76449300
 C               -1   -4.73479500   -1.98934200    1.01851100
 C               -1   -5.89393400   -2.77544900    1.08884500
 C               -1   -6.75470300   -2.81324400   -0.02128000
 C               -1   -6.42656800   -2.06253000   -1.16273000
 C               -1   -5.24979700   -1.29945000   -1.15551100
 N               -1   -4.42127800   -1.26804500   -0.08420900
 H               -1   -7.66587300   -3.41713200    0.00310000
 H               -1   -4.02539900   -1.91716600    1.84682300
 H               -1   -6.11101900   -3.34226200    1.99666900
 H               -1   -7.06749600   -2.06191200   -2.04687500
 H               -1   -4.94023600   -0.69138400   -2.00924000
 H                0    0.06608900   -0.54231300   -0.81144900
 H                0    1.48904700    0.13234900   -1.31633500
 H                0   -1.06479900   -2.05415500   -0.27394800
 C                0   11.52113600   -1.04686600   -3.36944700
 C                0   10.45966500   -1.51976000   -2.71100500
 C                0    9.05417500   -1.49025100   -3.23539700
 O                0    8.20645400   -0.90332800   -2.25617400
 C                0    6.82272400   -0.94615800   -2.62037500
 C                0    6.06738800   -0.37256100   -1.41561800
 C                0    6.10788600   -1.24284100   -0.16295800
 O                0    4.76107100    0.15209300   -1.65977400
 H                0   12.52478100   -1.12157100   -2.96045000
 H                0   11.42287800   -0.57071800   -4.34302100
 H                0   10.58259300   -1.98191500   -1.73184500
 H                0    8.71096500   -2.51856000   -3.44554400
 H                0    9.00488400   -0.92443500   -4.18020100
 H                0    6.51537200   -1.96944000   -2.85183100
 H                0    6.63565200   -0.31995200   -3.50292600
 H                0    6.64326500    0.51658500   -1.11746000
 H                0    5.53055200   -0.78205300    0.63740500
 H                0    7.13988900   -1.40254200    0.14650700
 N                0    0.63162300   -2.89345000   -4.25762300
 C                0    0.35033100   -1.42199300   -3.86543000
 C                0   -0.22328000   -0.50574500   -4.94274200
 H                0    1.30001900   -1.02047100   -3.50342700
 H                0   -0.34504900   -1.47380800   -3.02122300
 H                0   -0.22147900    0.49631500   -4.50326100
 H                0    0.37435800   -0.45531000   -5.85478400
 H                0   -1.25795500   -0.74229600   -5.20822300
 C                0   -0.48372900   -3.39406400   -5.15716300
 C                0   -0.39699100   -4.85008000   -5.61012400
 H                0   -0.49492700   -2.74143700   -6.02850900
 H                0   -1.40973500   -3.21747200   -4.60315000
 H                0   -1.22872300   -5.03066600   -6.29877100
 H                0    0.52686700   -5.06710200   -6.15286100
 H                0   -0.49674700   -5.56406900   -4.78961800
 C                0    0.60687000   -3.72152800   -2.96478900
 C                0    1.63611000   -3.34709400   -1.90599400
 H                0    0.74993900   -4.75932300   -3.27104500
 H                0   -0.40322600   -3.60011500   -2.56525700
 H                0    1.48814700   -4.03300300   -1.06482800
 H                0    2.66812400   -3.45205800   -2.24378100
 H                0    1.49839400   -2.33489100   -1.52852600
 C                0    2.01466200   -3.05701100   -4.89194100
 C                0    2.20658900   -2.48170900   -6.29066500
 H                0    2.21158700   -4.13250900   -4.89572600
 H                0    2.72470600   -2.57260400   -4.21432000
 H                0    3.21396700   -2.76590300   -6.61101700
 H                0    1.50399500   -2.86906900   -7.03515300
 H                0    2.17182600   -1.39151900   -6.29515400
 Br               0    5.34867900   -3.07393600   -0.34421000
 C                0    3.83919800   -0.44748500   -2.54023500
 O                0    2.71291700    0.11839300   -2.48811600
 O                0    4.20606000   -1.39542800   -3.25676500

Zn 0
LanL2DZ
****
C H O N Br 0
6-31+G(d,p)
****

Zn 0
LanL2DZ



