%nprocshared=64
%mem=64GB
%chk=OH_AGE_TEABr_CO2_opt_freq_TEA_relax_6_31Gdp_re.chk
# opt=(calcall,tight,cartesian) freq b3lyp/gen nosymm
scf=(qc,maxcycle=1024) pseudo=read

OH_AGE_TEABr_CO2_opt_freq_TEA_relax_6_31Gdp_re

0 1
 Zn               0   -2.74463300   -0.07651400   -0.13345600
 O                0   -1.35418700   -1.54546600   -0.85490200
 O                0    0.84886800    0.22339000   -0.66378600
 O               -1   -1.94049300   -0.63788000    1.72455200
 O               -1   -0.37269300    1.01087500    1.91697200
 C               -1   -1.06872400    0.05736700    2.35689200
 Zn               0   -0.15466400    1.84475600   -0.08989900
 O               -1   -1.63007900    3.22080600    0.54067600
 O               -1   -3.34506400    1.72518300    0.72020200
 O               -1   -1.08555900    1.98476100   -2.06074900
 O               -1   -2.99375600    0.73732500   -2.01136600
 C               -1   -2.81578800    2.87056000    0.84075600
 C               -1   -2.15086700    1.52281200   -2.55909500
 H               -1   -0.90807900   -0.23462600    3.41990800
 H               -1   -3.46663600    3.66873000    1.26093700
 H               -1   -2.38928200    1.83635500   -3.59888800
 C               -1    2.59138700    2.85970400   -0.55113500
 C               -1    3.70861200    3.70781500   -0.53734800
 C               -1    3.56604300    5.00672600   -0.02115400
 C               -1    2.30986500    5.41502300    0.45913800
 C               -1    1.24090600    4.50819900    0.41039900
 N               -1    1.38394800    3.25577100   -0.08258400
 H               -1    4.41908800    5.69040200    0.00577000
 H               -1    2.63015800    1.83613200   -0.93463600
 H               -1    4.66543400    3.35002800   -0.92344800
 H               -1    2.15477400    6.41643100    0.86647300
 H               -1    0.23923600    4.76356800    0.76449300
 C               -1   -4.73479500   -1.98934200    1.01851100
 C               -1   -5.89393400   -2.77544900    1.08884500
 C               -1   -6.75470300   -2.81324400   -0.02128000
 C               -1   -6.42656800   -2.06253000   -1.16273000
 C               -1   -5.24979700   -1.29945000   -1.15551100
 N               -1   -4.42127800   -1.26804500   -0.08420900
 H               -1   -7.66587300   -3.41713200    0.00310000
 H               -1   -4.02539900   -1.91716600    1.84682300
 H               -1   -6.11101900   -3.34226200    1.99666900
 H               -1   -7.06749600   -2.06191200   -2.04687500
 H               -1   -4.94023600   -0.69138400   -2.00924000
 H                0    0.20742200   -0.49641900   -0.86013100
 H                0    2.13970900   -0.15945700   -0.70606800
 H                0   -1.25528300   -2.15226700   -0.09011000
 C                0    8.01205300    0.14631800    4.41848800
 C                0    7.57805200   -0.49196600    3.32695300
 C                0    6.97835200    0.18483800    2.13182700
 O                0    5.72036700   -0.47792900    1.81862500
 C                0    5.08610100   -0.00178600    0.60090800
 C                0    3.83788300   -0.84803700    0.35730700
 C                0    4.13123800   -2.34111700    0.35955000
 O                0    3.20593100   -0.39910700   -0.84603800
 H                0    8.46488600   -0.38376400    5.25055000
 H                0    7.92991600    1.22578400    4.52283700
 H                0    7.65666700   -1.57473000    3.24837100
 H                0    7.65132300    0.10249100    1.26057200
 H                0    6.81083900    1.25557500    2.32630600
 H                0    5.76925700   -0.09902300   -0.25477700
 H                0    4.79450100    1.05231300    0.70553800
 H                0    3.16108200   -0.70301800    1.21964800
 H                0    3.23785300   -2.93174000    0.16655400
 H                0    4.64110000   -2.64748400    1.27023800
 N                0    2.07830500   -1.24110800   -4.50606600
 C                0    1.16241000   -0.14506300   -3.86053600
 C                0    1.12278800    1.22175400   -4.54293200
 H                0    1.48575700   -0.04157300   -2.82459700
 H                0    0.15945900   -0.57919200   -3.83246000
 H                0    0.51936700    1.85666300   -3.88426100
 H                0    2.10163200    1.69509500   -4.65540000
 H                0    0.62923400    1.20074100   -5.51999700
 C                0    2.01800900   -1.11895300   -6.03194900
 C                0    2.87947200   -2.10470800   -6.82271600
 H                0    2.31315000   -0.09882300   -6.27321900
 H                0    0.96125000   -1.23146700   -6.29192600
 H                0    2.77400300   -1.86296500   -7.88631600
 H                0    3.94135800   -2.02451100   -6.57365700
 H                0    2.57020600   -3.14519400   -6.69754500
 C                0    1.48946700   -2.62529200   -4.11500800
 C                0    1.62856500   -2.99633200   -2.64158100
 H                0    2.00558300   -3.36064800   -4.73455700
 H                0    0.43351200   -2.58210400   -4.38977300
 H                0    0.97261500   -3.85330300   -2.45537500
 H                0    2.65136200   -3.27370600   -2.37614800
 H                0    1.30607400   -2.19223000   -1.97975900
 C                0    3.51793100   -1.16100500   -3.96157800
 C                0    4.34378400    0.04317800   -4.40600600
 H                0    4.00338000   -2.09329800   -4.26116600
 H                0    3.43626100   -1.14567300   -2.87004500
 H                0    5.35217700   -0.09473400   -4.00074200
 H                0    4.43604700    0.14482200   -5.49242900
 H                0    3.95853400    0.97716300   -3.99227700
 Br               0    5.42151500   -2.90971400   -1.13282400
 C                0   -1.59048300   -2.49147900   -2.14694800
 O                0   -1.43554100   -1.84747300   -3.20228800
 O                0   -1.84461900   -3.65510100   -1.79454300

Zn 0
LanL2DZ
****
C H O N Br 0
6-31+G(d,p)
****

Zn 0
LanL2DZ



