%nprocshared=64
%mem=64GB
%chk=OH_opt_freq_re.chk
# opt=(calcall,tight,cartesian) freq b3lyp/gen nosymm
scf=(qc,maxcycle=1024) pseudo=read

OH_opt_freq_re

0 1
 Zn                -1.41936300    0.00292400    0.04260100
 O                 -1.13766900    1.22950900    1.61963800
 O                  1.32694000    1.24347700    1.67174500
 O                 -1.01340600    1.58758400   -1.37364600
 O                  1.23720000    1.72933200   -1.16086100
 C                  0.11649700    2.07923700   -1.63766100
 Zn                 1.63680700   -0.01010700    0.00407200
 O                  1.31952000   -1.16172200   -1.67781500
 O                 -0.93055000   -1.32759900   -1.53625200
 O                  1.20753800   -1.64922300    1.23472500
 O                 -1.05192100   -1.62096200    1.34789100
 C                  0.19002800   -1.59558300   -2.04492100
 C                  0.08342700   -2.08031600    1.63292200
 H                  0.13714100    2.91466200   -2.35931000
 H                  0.19381700   -2.28425200   -2.90738900
 H                  0.10663300   -2.95584900    2.30392800
 C                  4.39365500   -0.93164100    0.73235100
 C                  5.78344500   -0.94108500    0.81384600
 C                  6.49865600    0.06499200    0.16109800
 C                  5.80438000    1.04638800   -0.54975600
 C                  4.41472000    0.98345600   -0.58685000
 N                  3.73365900    0.01189900    0.04159500
 H                  7.58282000    0.08420600    0.20475300
 H                  3.77334500   -1.67815700    1.22172800
 H                  6.28451700   -1.72062700    1.37742000
 H                  6.32155100    1.84619800   -1.06863500
 H                  3.81136000    1.71231400   -1.12217600
 C                 -4.18988100   -0.92485800    0.65009200
 C                 -5.58144900   -0.95441000    0.65984200
 C                 -6.27490700   -0.06600600   -0.16449900
 C                 -5.55756300    0.82095200   -0.97038200
 C                 -4.16692300    0.78499400   -0.92556300
 N                 -3.50785300   -0.07418600   -0.13269100
 H                 -7.36010100   -0.06374500   -0.17769600
 H                 -3.58617200   -1.57968700    1.27311500
 H                 -6.10030500   -1.65661200    1.30310100
 H                 -6.05792900    1.52979400   -1.62111500
 H                 -3.54503500    1.44754300   -1.52210200
 H                  0.29051400    1.16084400    1.89476400
 H                  1.40092100    2.17098500    1.40688500
 H                 -1.26585700    2.14712500    1.34768300

Zn 0
LanL2DZ
****
C H O N 0
6-31+G(d,p)
****

Zn 0
LanL2DZ



