%nprocshared=64
%mem=64GB
%chk=0_opt_freq_from_IRC_re.chk
# opt=(calcall,tight,cartesian) freq b3lyp/gen nosymm
scf=(qc,maxcycle=1024) pseudo=read

0_opt_freq_from_IRC_re

0 1
 C                 -4.81657400   -2.38052500   -1.22885200
 C                 -3.51089900   -2.29757100   -1.50438600
 C                 -2.43892100   -2.15766300   -0.46597200
 O                 -1.61254200   -1.04503000   -0.80090500
 C                 -0.51943200   -0.87424400    0.08495800
 C                  0.21850300    0.37876700   -0.32253900
 C                  1.40538400    0.33076800   -1.18652000
 O                  1.53341800    0.52027300    0.23386500
 H                 -5.55436200   -2.51404300   -2.01293900
 H                 -5.18887800   -2.32104500   -0.21006400
 H                 -3.16243900   -2.34854100   -2.53371000
 H                 -1.82039000   -3.07069900   -0.43613400
 H                 -2.87954500   -2.02023300    0.53348400
 H                  0.16306100   -1.73710300    0.04738600
 H                 -0.87549200   -0.77093300    1.12234500
 H                 -0.37773000    1.29026200   -0.31163300
 H                  1.67148300    1.19659300   -1.78980100
 H                  1.76081200   -0.62967700   -1.55405300
 C                  3.15948600    2.29151400    1.80258900
 O                  2.50980200    2.10848700    2.79255200
 O                  3.83718100    2.50483300    0.83361600

C H O 0
6-31+G(d,p)
****



