%nprocshared=64
%mem=64GB
%chk=4_test_opt_freq_from_IRC.chk
# opt=(calcall,tight,cartesian) freq b3lyp/gen nosymm
scf=(qc,maxcycle=1024) pseudo=read

4_test_opt_freq_from_IRC

0 1
 Zn              -1   -4.69448900   -2.52890500    2.32631700
 O               -1   -4.60002200   -0.93173400    3.63136000
 O                0   -2.34276700   -0.85577900    3.53998900
 O               -1   -3.77140000   -1.27973400    0.82823100
 O                0   -1.52197200   -1.10487200    0.67121200
 C               -1   -3.46122600   -0.46881500    3.94274200
 C               -1   -2.70353900   -0.84263900    0.32124300
 Zn               0   -1.14327800   -2.43254300    2.22186000
 O                0   -2.28244200   -3.99321300    0.96855800
 O               -1   -4.53935400   -4.11556100    1.01424600
 O                0   -1.33195000   -3.69476000    3.80276500
 O               -1   -3.59320900   -3.69442500    3.77058600
 C               -1   -3.38490300   -4.48477600    0.64137000
 C               -1   -2.46758200   -4.04160500    4.21874000
 H               -1   -3.45540800    0.38383400    4.64231600
 H               -1   -2.79073900   -0.14615300   -0.52756300
 H               -1   -3.34703500   -5.33553600   -0.05950100
 H               -1   -2.45196700   -4.74051100    5.06989100
 C               -1   -7.53384400   -1.75151400    3.14439100
 C               -1   -8.92519000   -1.77977000    3.20972700
 C               -1   -9.61549200   -2.73787000    2.46520700
 C               -1   -8.88945800   -3.63544200    1.68034300
 C               -1   -7.49931600   -3.54490100    1.66652400
 N               -1   -6.83448600   -2.61908400    2.38605700
 H               -1  -10.70018500   -2.78422700    2.49611100
 H               -1   -6.94294800   -1.03037100    3.70008100
 H               -1   -9.44924800   -1.06304200    3.83290300
 H               -1   -9.38506500   -4.39575000    1.08621400
 H               -1   -6.88161800   -4.21449400    1.07653900
 C                0    0.09947200    1.16035000    6.84410700
 C                0    0.99404700    1.08873900    5.85314200
 C                0    0.64698700    1.04586100    4.39266800
 O                0    1.41777500    0.03989500    3.76125400
 C                0    1.24797000    0.02516700    2.34302800
 C                0    1.67131100   -1.34600400    1.80018900
 C                0    1.71053800   -1.35875500    0.26403700
 O                0    0.81689500   -2.37544200    2.13475700
 H                0    0.40576700    1.22221100    7.88526100
 H                0   -0.97078000    1.14314700    6.64621400
 H                0    2.06160800    1.07554400    6.07785100
 H                0    0.87734200    2.03186600    3.94035900
 H                0   -0.42715900    0.85187600    4.25117700
 H                0    1.85357100    0.83182400    1.89686500
 H                0    0.19341200    0.19643100    2.08454700
 H                0    2.69062800   -1.54632000    2.18257800
 H                0    1.99396900   -2.34563100   -0.09259400
 H                0    0.77012900   -1.03157700   -0.17590700
 N               -1    9.32365400    7.87859300   -9.41832700
 C               -1    8.77519200    8.66629100  -10.62748100
 C               -1    7.27043000    8.62288600  -10.87255300
 H               -1    9.31304400    8.27070200  -11.50121000
 H               -1    9.07822000    9.70189900  -10.45098400
 H               -1    7.10357700    9.15701600  -11.81341800
 H               -1    6.88373900    7.61369900  -11.01372300
 H               -1    6.68334300    9.12888900  -10.10024900
 C               -1    8.39180400    8.04929100   -8.23166000
 C               -1    8.83977400    7.40493600   -6.92221600
 H               -1    7.42815200    7.64082900   -8.53165500
 H               -1    8.26600600    9.12853300   -8.10364500
 H               -1    8.06074500    7.59519500   -6.17719400
 H               -1    8.95071800    6.32105600   -7.00604100
 H               -1    9.77023300    7.82471400   -6.53281400
 C               -1   10.68837300    8.48328500   -9.05488800
 C               -1   11.65486800    8.71425500  -10.21454100
 H               -1   11.12875600    7.80113600   -8.32636100
 H               -1   10.46650700    9.42567400   -8.54405700
 H               -1   12.64171400    8.90747300   -9.78093900
 H               -1   11.73079100    7.86424600  -10.89913800
 H               -1   11.37934000    9.58312500  -10.81557900
 C               -1    9.55967700    6.39600500   -9.75556800
 C               -1    8.33127400    5.54395500  -10.04221600
 H               -1   10.11972600    5.99722100   -8.90737800
 H               -1   10.18643900    6.39165500  -10.65625900
 H               -1    8.68430500    4.51032300  -10.11399300
 H               -1    7.56308200    5.57545400   -9.26271600
 H               -1    7.89699100    5.78487000  -11.01342100
 Br               0    3.12509100   -0.13543100   -0.59575600

Zn 0
LanL2DZ
****
C H O N Br 0
6-31+G(d,p)
****

Zn 0
LanL2DZ



