%nprocshared=64
%mem=64GB
%chk=IRC_3.chk
# irc=(calcfc,maxpoints=120,recalc=3) b3lyp/gen nosymm
scf=(qc,maxcycle=1024) opt=cartesian pseudo=read

IRC_3

0 1
 Zn              -1   -1.45149100   -0.05761800    0.03911800
 O               -1   -1.35702400    1.53955300    1.34416100
 O                0    0.90038900    1.60959600    1.25054400
 O               -1   -0.52840200    1.19155300   -1.45896800
 O                0    1.71917600    1.36510500   -1.60588200
 C               -1   -0.21822800    2.00247200    1.65554300
 C               -1    0.53945900    1.62864800   -1.96595600
 Zn               0    1.97634700    0.03513200   -0.07283700
 O                0    0.96107900   -1.52082500   -1.31289000
 O               -1   -1.29635600   -1.64427400   -1.27295300
 O                0    1.91115400   -1.21399100    1.51524300
 O               -1   -0.35021100   -1.22313800    1.48338700
 C               -1   -0.14190500   -2.01348900   -1.64582900
 C               -1    0.77541600   -1.57031800    1.93154100
 H               -1   -0.21241000    2.85512100    2.35511700
 H               -1    0.45225900    2.32513400   -2.81476200
 H               -1   -0.10403700   -2.86424900   -2.34670000
 H               -1    0.79103100   -2.26922400    2.78269200
 C               -1   -4.29084600    0.71977300    0.85719200
 C               -1   -5.68219200    0.69151700    0.92252800
 C               -1   -6.37249400   -0.26658300    0.17800800
 C               -1   -5.64646000   -1.16415500   -0.60685600
 C               -1   -4.25631800   -1.07361400   -0.62067500
 N               -1   -3.59148800   -0.14779700    0.09885800
 H               -1   -7.45718700   -0.31294000    0.20891200
 H               -1   -3.69995000    1.44091600    1.41288200
 H               -1   -6.20625000    1.40824500    1.54570400
 H               -1   -6.14206700   -1.92446300   -1.20098500
 H               -1   -3.63862000   -1.74320700   -1.21066000
 C                0    3.27533500    3.71028300    4.63469800
 C                0    4.19352400    3.60099600    3.67047200
 C                0    3.88593400    3.55407000    2.20204000
 O                0    4.57172800    2.45598600    1.62275700
 C                0    4.50148600    2.45192000    0.19663500
 C                0    4.95498500    1.09677800   -0.29928900
 C                0    4.83493200    0.81307700   -1.72723100
 O                0    4.01090900    0.03643400   -0.28024500
 H                0    3.55389500    3.76965700    5.68354000
 H                0    2.21200400    3.73225600    4.40637300
 H                0    5.25224100    3.55246800    3.92540100
 H                0    4.22812900    4.49445600    1.72941900
 H                0    2.80304400    3.46112600    2.02987700
 H                0    5.16345600    3.22395900   -0.22451400
 H                0    3.47458000    2.64709500   -0.14179000
 H                0    5.90399300    0.80950200    0.16590000
 H                0    5.39075200   -0.01081600   -2.14380500
 H                0    4.00899600    1.23527200   -2.27843800
 N               -1   12.56665200   10.34988000  -11.70552600
 C               -1   12.01819000   11.13757800  -12.91468000
 C               -1   10.51342800   11.09417300  -13.15975200
 H               -1   12.55604200   10.74198900  -13.78840900
 H               -1   12.32121800   12.17318600  -12.73818300
 H               -1   10.34657500   11.62830300  -14.10061700
 H               -1   10.12673700   10.08498600  -13.30092200
 H               -1    9.92634100   11.60017600  -12.38744800
 C               -1   11.63480200   10.52057800  -10.51885900
 C               -1   12.08277200    9.87622300   -9.20941500
 H               -1   10.67115000   10.11211600  -10.81885400
 H               -1   11.50900400   11.59982000  -10.39084400
 H               -1   11.30374300   10.06648200   -8.46439300
 H               -1   12.19371600    8.79234300   -9.29324000
 H               -1   13.01323100   10.29600100   -8.82001300
 C               -1   13.93137100   10.95457200  -11.34208700
 C               -1   14.89786600   11.18554200  -12.50174000
 H               -1   14.37175400   10.27242300  -10.61356000
 H               -1   13.70950500   11.89696100  -10.83125600
 H               -1   15.88471200   11.37876000  -12.06813800
 H               -1   14.97378900   10.33553300  -13.18633700
 H               -1   14.62233800   12.05441200  -13.10277800
 C               -1   12.80267500    8.86729200  -12.04276700
 C               -1   11.57427200    8.01524200  -12.32941500
 H               -1   13.36272400    8.46850800  -11.19457700
 H               -1   13.42943700    8.86294200  -12.94345800
 H               -1   11.92730300    6.98161000  -12.40119200
 H               -1   10.80608000    8.04674100  -11.54991500
 H               -1   11.13998900    8.25615700  -13.30062000
 Br               0    6.47579300    2.41380500   -3.05497800

Zn 0
LanL2DZ
****
C H O N Br 0
6-31+G(d,p)
****

Zn 0
LanL2DZ



