%nprocshared=20
%mem=20GB
%chk=paddle_new_AGE_opt_freq_reposition.chk
# opt=(calcall,tight,cartesian) freq b3lyp/gen nosymm
scf=(qc,maxcycle=1024) pseudo=read

paddle_new_AGE_opt_freq_reposition

0 1
 Zn              -1   -4.69448900   -2.52890500    2.32631700
 O               -1   -4.60002200   -0.93173400    3.63136000
 O                0   -2.34252000   -0.87474400    3.54110300
 O               -1   -3.77140000   -1.27973400    0.82823100
 O                0   -1.52368500   -1.12053600    0.67927000
 C               -1   -3.46122600   -0.46881500    3.94274200
 C               -1   -2.70353900   -0.84263900    0.32124300
 Zn               0   -1.42258000   -2.38300400    2.25531800
 O                0   -2.28231600   -3.98659600    0.97872800
 O               -1   -4.53935400   -4.11556100    1.01424600
 O                0   -1.33232900   -3.67022100    3.80249700
 O               -1   -3.59320900   -3.69442500    3.77058600
 C               -1   -3.38490300   -4.48477600    0.64137000
 C               -1   -2.46758200   -4.04160500    4.21874000
 H               -1   -3.45540800    0.38383400    4.64231600
 H               -1   -2.79073900   -0.14615300   -0.52756300
 H               -1   -3.34703500   -5.33553600   -0.05950100
 H               -1   -2.45196700   -4.74051100    5.06989100
 C               -1   -7.53384400   -1.75151400    3.14439100
 C               -1   -8.92519000   -1.77977000    3.20972700
 C               -1   -9.61549200   -2.73787000    2.46520700
 C               -1   -8.88945800   -3.63544200    1.68034300
 C               -1   -7.49931600   -3.54490100    1.66652400
 N               -1   -6.83448600   -2.61908400    2.38605700
 H               -1  -10.70018500   -2.78422700    2.49611100
 H               -1   -6.94294800   -1.03037100    3.70008100
 H               -1   -9.44924800   -1.06304200    3.83290300
 H               -1   -9.38506500   -4.39575000    1.08621400
 H               -1   -6.88161800   -4.21449400    1.07653900
 C                0    2.60631100    3.45823900    3.43349000
 C                0    3.04306500    2.37036800    2.79139900
 C                0    2.32620200    1.69871300    1.66082500
 O                0    2.18283300    0.30820300    1.97916600
 C                0    1.75605900   -0.45898700    0.85843700
 C                0    1.85420900   -1.91157700    1.22173500
 C                0    1.13623600   -2.94975900    0.47528300
 O                0    0.70067100   -2.60833700    1.81848000
 H                0    3.18993300    3.93091100    4.21936400
 H                0    1.65041900    3.91700800    3.18833400
 H                0    3.99997900    1.92455300    3.06224900
 H                0    2.90355400    1.80248300    0.72675900
 H                0    1.33488200    2.15454900    1.50535700
 H                0    2.41659900   -0.27106800   -0.00567200
 H                0    0.72545300   -0.20978900    0.57183400
 H                0    2.77327700   -2.19357000    1.73237400
 H                0    1.55172100   -3.95114000    0.39038800
 H                0    0.44005900   -2.64945900   -0.30424000

Zn 0
LanL2DZ
****
C H O Br N 0
6-31+G(d,p)
****

Zn 0
LanL2DZ



